@<TRIPOS>MOLECULE
ZINC79487852
 26 29 0 0 0
SMALL
GASTEIGER

@<TRIPOS>ATOM
      1 C           9.0510  -10.5975    2.3232 C.ar    1  UNL1        0.0044
      2 C           7.9445  -12.7350    2.5321 C.ar    1  UNL1        0.0044
      3 C          10.2405  -11.1691    2.7749 C.ar    1  UNL1        0.0201
      4 C           9.1340  -13.3066    2.9837 C.ar    1  UNL1        0.0201
      5 C           6.1319   -9.5327    1.8183 C.ar    1  UNL1        0.0403
      6 C           4.8864   -9.6009    1.1494 C.ar    1  UNL1        0.0373
      7 C           1.7950  -11.3694    1.6808 C.ar    1  UNL1        0.1220
      8 C           7.9029  -11.3804    2.2019 C.ar    1  UNL1        0.0346
      9 C           2.3368  -11.1506    0.3794 C.ar    1  UNL1        0.0508
     10 C          10.2820  -12.5236    3.1051 C.ar    1  UNL1        0.1250
     11 C           6.6788  -10.7921    1.7366 C.ar    1  UNL1        0.1449
     12 C           4.7612  -10.8970    0.7063 C.ar    1  UNL1        0.1367
     13 C           1.3041  -10.5147   -0.2905 C.ar    1  UNL1        0.1746
     14 C           1.9953   -9.9096   -2.5822 C.2     1  UNL1        0.2579
     15 C           3.4662   -9.9807   -2.2813 C.3     1  UNL1        0.1453
     16 C           3.6783  -11.6314   -0.0694 C.3     1  UNL1        0.1317
     17 N           0.5534  -10.9121    1.8245 N.ar    1  UNL1       -0.1453
     18 N           0.2780  -10.4188    0.6125 N.ar    1  UNL1       -0.1312
     19 N           1.0827  -10.0441   -1.5660 N.am    1  UNL1       -0.1580
     20 N          11.6274  -13.0003    5.3563 N.3     1  UNL1        0.0392
     21 O           1.6236   -9.6460   -3.7317 O.2     1  UNL1       -0.2720
     22 O          11.7281  -14.6682    3.3932 O.2     1  UNL1       -0.1503
     23 O          12.8843  -12.4400    3.1783 O.2     1  UNL1       -0.1503
     24 O           5.8497  -11.6297    1.0600 O.2     1  UNL1       -0.4566
     25 S           3.9576  -11.6566   -1.8586 S.3     1  UNL1       -0.1191
     26 S          11.7705  -13.2391    3.6703 S.O2    1  UNL1        0.0935
@<TRIPOS>BOND
     1     1     3   ar
     2     2     8   ar
     3     4    10   ar
     4     5     6   ar
     5     7     9   ar
     6     8    11    1
     7    11    24   ar
     8    12    24   ar
     9    13    18   ar
    10    13    19    1
    11    14    19   am
    12    15    14    1
    13    15    25    1
    14    16     9    1
    15    16    12    1
    16    16    25    1
    17    18    17   ar
    18    26    10    1
    19    26    20    1
    20     1     8   ar
    21     2     4   ar
    22     3    10   ar
    23     5    11   ar
    24     6    12   ar
    25     7    17   ar
    26     9    13   ar
    27    14    21    2
    28    26    22    2
    29    26    23    2
