@<TRIPOS>MOLECULE
ZINC32901919
 29 32 0 0 0
SMALL
GASTEIGER

@<TRIPOS>ATOM
      1 C          15.8267  -14.7872    4.2684 C.ar    1  UNL1        0.0003
      2 C          15.2842  -15.3646    3.1212 C.ar    1  UNL1        0.0015
      3 C          15.0060  -14.0956    5.1578 C.ar    1  UNL1        0.0063
      4 C          13.9173  -15.2525    2.8586 C.ar    1  UNL1        0.0193
      5 C           2.3233  -11.7144    1.9507 C.ar    1  UNL1        0.0269
      6 C           1.7931  -10.1305    0.4408 C.ar    1  UNL1        0.1005
      7 C           4.8047   -9.5579    0.0018 C.ar    1  UNL1        0.0573
      8 C           2.8561  -10.7502    1.0600 C.ar    1  UNL1        0.0390
      9 C          13.6383  -13.9864    4.8902 C.ar    1  UNL1        0.0755
     10 C          13.0783  -14.5622    3.7398 C.ar    1  UNL1        0.0873
     11 C           4.2688  -10.4917    0.8637 C.ar    1  UNL1        0.0913
     12 C           0.9510  -11.6548    1.8487 C.ar    1  UNL1        0.1379
     13 C           6.3942  -10.8522    1.2671 C.ar    1  UNL1        0.1858
     14 C          12.7486  -13.2572    5.8200 C.ar    1  UNL1        0.2817
     15 C          10.9553  -13.8235    4.2780 C.ar    1  UNL1        0.1428
     16 C          -0.0255  -12.4297    2.5468 C.2     1  UNL1        0.3019
     17 C           7.7522  -12.3467    2.7173 C.2     1  UNL1        0.2477
     18 C           9.4824  -13.6873    4.0226 C.3     1  UNL1        0.0754
     19 C           9.2315  -12.5992    2.9905 C.3     1  UNL1        0.0952
     20 N           5.1787  -11.2351    1.5898 N.ar    1  UNL1       -0.2224
     21 N          11.7057  -14.4696    3.4426 N.ar    1  UNL1       -0.2305
     22 N           0.6400  -10.6887    0.9277 N.ar    1  UNL1       -0.2391
     23 N          11.4189  -13.2271    5.4323 N.ar    1  UNL1       -0.1929
     24 N           0.4135  -13.3924    3.4697 N.am    1  UNL1       -0.0824
     25 N           7.6042  -11.3414    1.7657 N.am    1  UNL1       -0.1543
     26 O          13.1802  -12.7328    6.8399 O.2     1  UNL1       -0.2651
     27 O          -1.2598  -12.2917    2.3528 O.2     1  UNL1       -0.2650
     28 O           6.8696  -12.9800    3.2862 O.2     1  UNL1       -0.2729
     29 S           6.5166   -9.6023    0.0975 S.2     1  UNL1       -0.0492
@<TRIPOS>BOND
     1     1     2   ar
     2     3     9   ar
     3     4    10   ar
     4     5     8   ar
     5     6    22   ar
     6     7    29   ar
     7     8    11    1
     8     9    14   ar
     9    10    21   ar
    10    11    20   ar
    11    12    16    1
    12    12    22   ar
    13    13    25    1
    14    13    29   ar
    15    14    23   ar
    16    15    23   ar
    17    16    24   am
    18    17    25   am
    19    18    15    1
    20    18    19    1
    21    19    17    1
    22     1     3   ar
    23     2     4   ar
    24     5    12   ar
    25     6     8   ar
    26     7    11   ar
    27     9    10   ar
    28    13    20   ar
    29    14    26    2
    30    15    21   ar
    31    16    27    2
    32    17    28    2
