@<TRIPOS>MOLECULE
ZINC56907877
 29 32 0 0 0
SMALL
GASTEIGER

@<TRIPOS>ATOM
      1 C           0.1910  -10.9612    1.1549 C.ar    1  UNL1        0.0000
      2 C           0.7880   -9.8148    0.6306 C.ar    1  UNL1        0.0000
      3 C           0.9838  -11.9881    1.6676 C.ar    1  UNL1        0.0000
      4 C           2.1777   -9.6953    0.6188 C.ar    1  UNL1        0.0015
      5 C           2.3734  -11.8687    1.6558 C.ar    1  UNL1        0.0015
      6 C           5.0740   -9.8775    0.1573 C.ar    1  UNL1        0.0575
      7 C           2.9705  -10.7223    1.1313 C.ar    1  UNL1        0.0182
      8 C           4.3996  -10.5987    1.1202 C.ar    1  UNL1        0.0900
      9 C           8.8853  -12.2265    3.9886 C.ar    1  UNL1        0.1728
     10 C           7.5465  -12.1358    3.7009 C.ar    1  UNL1        0.0885
     11 C           6.4469  -10.9300    1.8336 C.ar    1  UNL1        0.1965
     12 C          14.3629  -14.9634    2.2439 C.ar    1  UNL1        0.0274
     13 C          15.0057  -15.1494    3.3933 C.ar    1  UNL1        0.0638
     14 C          12.9140  -14.7818    2.3408 C.ar    1  UNL1        0.1204
     15 C          14.2635  -15.1651    4.6754 C.ar    1  UNL1        0.2765
     16 C           9.5163  -12.9572    5.1178 C.2     1  UNL1        0.2856
     17 C           6.3488  -12.6870    4.3578 C.3     1  UNL1        0.0541
     18 C          12.0531  -14.9747    5.7887 C.3     1  UNL1        0.1541
     19 C          11.6594  -13.5685    6.2084 C.3     1  UNL1        0.1419
     20 N           5.1852  -11.2032    2.0819 N.ar    1  UNL1       -0.2204
     21 N           9.6034  -11.5258    3.0597 N.ar    1  UNL1       -0.1241
     22 N           8.7450  -10.9960    2.1950 N.ar    1  UNL1       -0.0580
     23 N          12.2146  -14.7855    3.4244 N.ar    1  UNL1       -0.1652
     24 N           7.5124  -11.3627    2.5814 N.ar    1  UNL1       -0.1911
     25 N          12.8887  -14.9783    4.5998 N.ar    1  UNL1       -0.2148
     26 N          10.9028  -12.8939    5.1886 N.am    1  UNL1       -0.1982
     27 O          14.8958  -15.3401    5.7168 O.2     1  UNL1       -0.2655
     28 O           8.8050  -13.5818    5.9004 O.2     1  UNL1       -0.2666
     29 S           6.7606   -9.9508    0.4596 S.2     1  UNL1       -0.0466
@<TRIPOS>BOND
     1     1     2   ar
     2     3     5   ar
     3     4     7   ar
     4     6    29   ar
     5     7     8    1
     6     8    20   ar
     7     9    16    1
     8     9    21   ar
     9    10    24   ar
    10    11    24    1
    11    11    29   ar
    12    12    14   ar
    13    13    15   ar
    14    15    25   ar
    15    16    26   am
    16    17    10    1
    17    18    19    1
    18    18    25    1
    19    19    26    1
    20    24    22   ar
    21    25    23   ar
    22     1     3   ar
    23     2     4   ar
    24     5     7   ar
    25     6     8   ar
    26     9    10   ar
    27    11    20   ar
    28    12    13   ar
    29    14    23   ar
    30    15    27    2
    31    16    28    2
    32    21    22   ar
