@<TRIPOS>MOLECULE
ZINC56935096
 29 33 0 0 0
SMALL
GASTEIGER

@<TRIPOS>ATOM
      1 C           0.2135  -10.7219    1.4125 C.ar    1  UNL1        0.0000
      2 C           0.8055  -11.5998    0.5047 C.ar    1  UNL1        0.0000
      3 C           1.0106   -9.8995    2.2087 C.ar    1  UNL1        0.0000
      4 C          12.0442  -13.9435    8.6375 C.ar    1  UNL1        0.0045
      5 C           2.1948  -11.6555    0.3931 C.ar    1  UNL1        0.0015
      6 C           2.3999   -9.9552    2.0972 C.ar    1  UNL1        0.0015
      7 C          11.2477  -13.4368    7.6030 C.ar    1  UNL1        0.0168
      8 C          12.7992  -14.2609    5.9172 C.ar    1  UNL1        0.0376
      9 C          14.2771  -15.2525    9.0050 C.ar    1  UNL1        0.1237
     10 C           5.0808  -10.6135   -0.1054 C.ar    1  UNL1        0.0575
     11 C          13.2313  -14.6160    8.3024 C.ar    1  UNL1        0.0404
     12 C           2.9921  -10.8332    1.1894 C.ar    1  UNL1        0.0182
     13 C          13.5790  -14.7583    6.9637 C.ar    1  UNL1        0.1057
     14 C          11.6206  -13.5938    6.2667 C.ar    1  UNL1        0.0753
     15 C           4.4208  -10.8898    1.0737 C.ar    1  UNL1        0.0900
     16 C           8.9476  -11.9920    4.1220 C.ar    1  UNL1        0.1731
     17 C           7.6049  -11.8446    3.8802 C.ar    1  UNL1        0.0885
     18 C           6.4779  -11.2051    1.7657 C.ar    1  UNL1        0.1965
     19 C           9.5896  -12.3730    5.3918 C.2     1  UNL1        0.2897
     20 C           6.4170  -12.0015    4.7374 C.3     1  UNL1        0.0541
     21 N          15.2119  -15.7578    8.1970 N.ar    1  UNL1       -0.1464
     22 N           5.2202  -11.2296    2.1475 N.ar    1  UNL1       -0.2204
     23 N           9.6517  -11.7288    2.9799 N.ar    1  UNL1       -0.1240
     24 N           8.7808  -11.4182    2.0259 N.ar    1  UNL1       -0.0580
     25 N          14.7636  -15.4442    6.9700 N.ar    1  UNL1       -0.1479
     26 N           7.5542  -11.4881    2.5678 N.ar    1  UNL1       -0.1911
     27 N          10.8046  -13.0740    5.2598 N.am    1  UNL1       -0.1740
     28 O           9.0609  -12.1138    6.4707 O.2     1  UNL1       -0.2662
     29 S           6.7715  -10.7810    0.1290 S.2     1  UNL1       -0.0466
@<TRIPOS>BOND
     1     1     2   ar
     2     3     6   ar
     3     4    11   ar
     4     5    12   ar
     5     7    14   ar
     6     8    13   ar
     7     9    11   ar
     8    10    29   ar
     9    12    15    1
    10    13    25   ar
    11    14    27    1
    12    15    22   ar
    13    16    19    1
    14    16    23   ar
    15    17    26   ar
    16    18    26    1
    17    18    29   ar
    18    19    27   am
    19    20    17    1
    20    25    21   ar
    21    26    24   ar
    22     1     3   ar
    23     2     5   ar
    24     4     7   ar
    25     6    12   ar
    26     8    14   ar
    27     9    21   ar
    28    10    15   ar
    29    11    13   ar
    30    16    17   ar
    31    18    22   ar
    32    19    28    2
    33    23    24   ar
