@<TRIPOS>MOLECULE
ZINC56907877
 29 32 0 0 0
SMALL
GASTEIGER

@<TRIPOS>ATOM
      1 C           0.1747  -10.8248    1.1736 C.ar    1  UNL1        0.0000
      2 C           0.8550  -10.8316   -0.0441 C.ar    1  UNL1        0.0000
      3 C           0.8880  -10.7611    2.3707 C.ar    1  UNL1        0.0000
      4 C           2.2485  -10.7746   -0.0648 C.ar    1  UNL1        0.0015
      5 C           2.2815  -10.7041    2.3500 C.ar    1  UNL1        0.0015
      6 C           5.0975  -10.0688    0.0767 C.ar    1  UNL1        0.0575
      7 C           2.9618  -10.7110    1.1322 C.ar    1  UNL1        0.0182
      8 C           4.3950  -10.6513    1.1108 C.ar    1  UNL1        0.0900
      9 C           8.8135  -12.1508    4.1485 C.ar    1  UNL1        0.1728
     10 C           7.4791  -12.0340    3.8498 C.ar    1  UNL1        0.0885
     11 C           6.4278  -10.9915    1.8603 C.ar    1  UNL1        0.1965
     12 C          10.3434  -17.6309    4.1957 C.ar    1  UNL1        0.0274
     13 C          10.9827  -16.7783    3.3998 C.ar    1  UNL1        0.0638
     14 C          10.4495  -17.3710    5.6319 C.ar    1  UNL1        0.1204
     15 C          11.7464  -15.6449    3.9716 C.ar    1  UNL1        0.2765
     16 C           9.4151  -12.7813    5.3516 C.2     1  UNL1        0.2856
     17 C           6.2604  -12.4583    4.5601 C.3     1  UNL1        0.0541
     18 C          12.4650  -14.4654    6.0342 C.3     1  UNL1        0.1541
     19 C          11.5326  -13.3627    6.5067 C.3     1  UNL1        0.1419
     20 N           5.1562  -11.1813    2.1342 N.ar    1  UNL1       -0.2204
     21 N           9.5588  -11.5868    3.1505 N.ar    1  UNL1       -0.1241
     22 N           8.7219  -11.1173    2.2317 N.ar    1  UNL1       -0.0580
     23 N          11.0973  -16.4038    6.1874 N.ar    1  UNL1       -0.1652
     24 N           7.4756  -11.3863    2.6529 N.ar    1  UNL1       -0.1911
     25 N          11.7508  -15.5344    5.3566 N.ar    1  UNL1       -0.2148
     26 N          10.8032  -12.7707    5.4181 N.am    1  UNL1       -0.1982
     27 O          12.3240  -14.8787    3.2006 O.2     1  UNL1       -0.2655
     28 O           8.6795  -13.2859    6.1960 O.2     1  UNL1       -0.2666
     29 S           6.7801  -10.1818    0.3888 S.2     1  UNL1       -0.0466
@<TRIPOS>BOND
     1     1     2   ar
     2     3     5   ar
     3     4     7   ar
     4     6    29   ar
     5     7     8    1
     6     8    20   ar
     7     9    16    1
     8     9    21   ar
     9    10    24   ar
    10    11    24    1
    11    11    29   ar
    12    12    14   ar
    13    13    15   ar
    14    15    25   ar
    15    16    26   am
    16    17    10    1
    17    18    19    1
    18    18    25    1
    19    19    26    1
    20    24    22   ar
    21    25    23   ar
    22     1     3   ar
    23     2     4   ar
    24     5     7   ar
    25     6     8   ar
    26     9    10   ar
    27    11    20   ar
    28    12    13   ar
    29    14    23   ar
    30    15    27    2
    31    16    28    2
    32    21    22   ar
