@<TRIPOS>MOLECULE
ZINC49473793
 29 33 0 0 0
SMALL
GASTEIGER

@<TRIPOS>ATOM
      1 C           5.7961   -9.6923   -0.5138 C.ar    1  UNL1        0.0017
      2 C           7.9244  -12.5358    7.1947 C.ar    1  UNL1        0.0025
      3 C           6.7698  -10.1921    0.3508 C.ar    1  UNL1        0.0047
      4 C           4.4446   -9.8980   -0.2359 C.ar    1  UNL1        0.0193
      5 C           7.1763  -12.0970    6.0976 C.ar    1  UNL1        0.0167
      6 C           5.0409  -11.1033    1.7712 C.ar    1  UNL1        0.0238
      7 C           9.0949  -12.3758    4.6717 C.ar    1  UNL1        0.0358
      8 C           2.1842  -11.4641    2.2396 C.ar    1  UNL1        0.2258
      9 C           9.2732  -12.8967    7.0512 C.ar    1  UNL1        0.0137
     10 C           6.3923  -10.8975    1.4933 C.ar    1  UNL1        0.0569
     11 C           4.0671  -10.6035    0.9067 C.ar    1  UNL1        0.0864
     12 C           9.8393  -12.8158    5.7721 C.ar    1  UNL1        0.0855
     13 C           7.7615  -12.0148    4.8379 C.ar    1  UNL1        0.0752
     14 C          10.1159  -13.3646    8.1762 C.ar    1  UNL1       -0.0201
     15 C          11.3923  -13.7402    7.9508 C.ar    1  UNL1        0.0317
     16 C          11.9961  -13.6472    6.5815 C.ar    1  UNL1        0.2748
     17 C           7.4210  -11.4265    2.4052 C.2     1  UNL1        0.2690
     18 C           9.5153  -13.4079    9.5651 C.3     1  UNL1        0.0262
     19 C          12.2961  -14.2816    9.0312 C.3     1  UNL1        0.0309
     20 C          10.5360  -13.6222   10.6854 C.3     1  UNL1        0.0050
     21 C          11.5512  -14.6861   10.3015 C.3     1  UNL1        0.0052
     22 N           0.8765  -11.4272    2.1266 N.ar    1  UNL1       -0.1045
     23 N           0.6234  -10.7281    0.9681 N.ar    1  UNL1       -0.0222
     24 N           1.7532  -10.3448    0.3858 N.ar    1  UNL1       -0.0385
     25 N           2.7274  -10.8062    1.1824 N.ar    1  UNL1       -0.1886
     26 N          11.1769  -13.1864    5.5767 N.ar    1  UNL1       -0.2081
     27 N           7.0123  -11.5765    3.7461 N.am    1  UNL1       -0.1754
     28 O          13.1677  -13.9667    6.3846 O.2     1  UNL1       -0.2656
     29 O           8.5551  -11.6767    2.0025 O.2     1  UNL1       -0.2680
@<TRIPOS>BOND
     1     1     3   ar
     2     2     9   ar
     3     4    11   ar
     4     5    13   ar
     5     6    10   ar
     6     7    12   ar
     7     8    25   ar
     8     9    14   ar
     9    10    17    1
    10    11    25    1
    11    12    26   ar
    12    13    27    1
    13    15    16   ar
    14    16    26   ar
    15    17    27   am
    16    18    14    1
    17    18    20    1
    18    19    15    1
    19    19    21    1
    20    20    21    1
    21    22    23   ar
    22    25    24   ar
    23     1     4   ar
    24     2     5   ar
    25     3    10   ar
    26     6    11   ar
    27     7    13   ar
    28     8    22   ar
    29     9    12   ar
    30    14    15   ar
    31    16    28    2
    32    17    29    2
    33    23    24   ar
