@<TRIPOS>MOLECULE
ZINC32848693
 31 35 0 0 0
SMALL
GASTEIGER

@<TRIPOS>ATOM
      1 C           2.8753  -14.7187    3.0044 C.ar    1  UNL1        0.0001
      2 C           1.2517  -13.2549   -1.1357 C.ar    1  UNL1        0.0001
      3 C          -0.0476  -12.9356   -0.7465 C.ar    1  UNL1        0.0015
      4 C           3.7565  -15.7666    2.7383 C.ar    1  UNL1        0.0013
      5 C           3.3302  -13.5738    3.6585 C.ar    1  UNL1        0.0013
      6 C           2.3503  -12.5905   -0.5782 C.ar    1  UNL1        0.0017
      7 C          -0.2908  -11.9452    0.2093 C.ar    1  UNL1        0.0191
      8 C           5.0927  -15.6698    3.1266 C.ar    1  UNL1        0.0166
      9 C           4.6665  -13.4770    4.0468 C.ar    1  UNL1        0.0166
     10 C           2.1843   -9.9467    1.9404 C.ar    1  UNL1        0.1035
     11 C           2.1297  -11.5882    0.3873 C.ar    1  UNL1        0.0237
     12 C           2.9816  -10.7336    1.1415 C.ar    1  UNL1        0.0757
     13 C           0.8170  -11.2893    0.7580 C.ar    1  UNL1        0.0815
     14 C           5.5477  -14.5250    3.7809 C.ar    1  UNL1        0.0736
     15 C           4.4494  -10.6610    1.1127 C.ar    1  UNL1        0.2520
     16 C           8.1536  -11.1211    4.2142 C.ar    1  UNL1        0.1551
     17 C           9.7958  -12.5150    4.8442 C.ar    1  UNL1        0.2601
     18 C           7.7707  -13.3298    4.3227 C.ar    1  UNL1        0.2444
     19 C           6.4397  -10.1115    1.5037 C.ar    1  UNL1        0.2786
     20 C           8.3616   -8.6602    4.7795 C.3     1  UNL1        0.0203
     21 C           7.6629   -9.7164    3.9247 C.3     1  UNL1        0.1148
     22 N           5.1906  -11.4221    0.3419 N.ar    1  UNL1       -0.1064
     23 N           9.4317  -11.2445    4.6077 N.ar    1  UNL1       -0.1952
     24 N           7.2665  -12.1156    4.0499 N.ar    1  UNL1       -0.1962
     25 N           9.0222  -13.6058    4.7236 N.ar    1  UNL1       -0.1767
     26 N           6.5000  -11.0606    0.5993 N.ar    1  UNL1       -0.1006
     27 N           0.8804  -10.2894    1.7022 N.ar    1  UNL1       -0.2437
     28 N          11.1275  -12.7247    5.2640 N.pl3   1  UNL1       -0.0859
     29 N           6.8961  -14.4278    4.1729 N.pl3   1  UNL1       -0.1776
     30 O           5.1698   -9.8002    1.8825 O.2     1  UNL1       -0.4109
     31 S           7.8376   -9.3165    2.1639 S.3     1  UNL1       -0.0485
@<TRIPOS>BOND
     1     1     4   ar
     2     2     6   ar
     3     3     7   ar
     4     5     9   ar
     5     8    14   ar
     6    10    27   ar
     7    11    12   ar
     8    11    13   ar
     9    12    15    1
    10    13    27   ar
    11    14    29    1
    12    15    30   ar
    13    16    23   ar
    14    17    25   ar
    15    17    28    1
    16    18    24   ar
    17    18    29    1
    18    19    30   ar
    19    19    31    1
    20    20    21    1
    21    21    16    1
    22    21    31    1
    23    22    26   ar
    24     1     5   ar
    25     2     3   ar
    26     4     8   ar
    27     6    11   ar
    28     7    13   ar
    29     9    14   ar
    30    10    12   ar
    31    15    22   ar
    32    16    24   ar
    33    17    23   ar
    34    18    25   ar
    35    19    26   ar
