@<TRIPOS>MOLECULE
ZINC29252447
 28 31 0 0 0
SMALL
GASTEIGER

@<TRIPOS>ATOM
      1 C          12.4832   -9.9418    9.0905 C.ar    1  UNL1        0.0003
      2 C          11.4406  -10.5362    9.8001 C.ar    1  UNL1        0.0015
      3 C           0.6900  -10.8333    2.0066 C.ar    1  UNL1        0.0207
      4 C           2.0756  -10.8230    2.1216 C.ar    1  UNL1        0.0047
      5 C          12.8067  -10.3954    7.8127 C.ar    1  UNL1        0.0063
      6 C          10.7166  -11.5875    9.2342 C.ar    1  UNL1        0.0193
      7 C           0.1392  -10.5260    0.7729 C.ar    1  UNL1        0.0989
      8 C           2.2094  -10.2176   -0.1744 C.ar    1  UNL1        0.1004
      9 C           5.0689   -9.6642    0.3221 C.ar    1  UNL1        0.0573
     10 C           2.8571  -10.5102    1.0150 C.ar    1  UNL1        0.0374
     11 C          12.0786  -11.4483    7.2508 C.ar    1  UNL1        0.0755
     12 C          11.0270  -12.0558    7.9530 C.ar    1  UNL1        0.0873
     13 C           4.2889  -10.4923    1.1017 C.ar    1  UNL1        0.0913
     14 C           6.2602  -11.0965    1.8492 C.ar    1  UNL1        0.1858
     15 C          12.4044  -11.9458    5.8965 C.ar    1  UNL1        0.2817
     16 C          10.5879  -13.5286    6.2265 C.ar    1  UNL1        0.1423
     17 C           7.1701  -12.6920    3.5239 C.2     1  UNL1        0.2473
     18 C           9.8268  -14.6564    5.5922 C.3     1  UNL1        0.0663
     19 C           8.5405  -13.1076    4.0444 C.3     1  UNL1        0.0877
     20 C           8.4565  -14.1855    5.1262 C.3     1  UNL1        0.0176
     21 N           0.8658  -10.2173   -0.3245 N.ar    1  UNL1       -0.2423
     22 N           4.9702  -11.3147    1.9776 N.ar    1  UNL1       -0.2224
     23 N          10.2757  -13.1173    7.4147 N.ar    1  UNL1       -0.2305
     24 N          11.6042  -12.9909    5.4643 N.ar    1  UNL1       -0.1929
     25 N           7.3039  -11.7121    2.5447 N.am    1  UNL1       -0.1543
     26 O          13.3123  -11.4554    5.2358 O.2     1  UNL1       -0.2651
     27 O           6.1362  -13.1916    3.9546 O.2     1  UNL1       -0.2729
     28 S           6.7243   -9.9154    0.6939 S.2     1  UNL1       -0.0492
@<TRIPOS>BOND
     1     1     2   ar
     2     3     7   ar
     3     4    10   ar
     4     5    11   ar
     5     6    12   ar
     6     8    21   ar
     7     9    28   ar
     8    10    13    1
     9    11    15   ar
    10    12    23   ar
    11    13    22   ar
    12    14    25    1
    13    14    28   ar
    14    15    24   ar
    15    16    24   ar
    16    17    25   am
    17    18    16    1
    18    18    20    1
    19    19    17    1
    20    19    20    1
    21     1     5   ar
    22     2     6   ar
    23     3     4   ar
    24     7    21   ar
    25     8    10   ar
    26     9    13   ar
    27    11    12   ar
    28    14    22   ar
    29    15    26    2
    30    16    23   ar
    31    17    27    2
