@<TRIPOS>MOLECULE
ZINC08442796
 25 27 0 0 0
SMALL
GASTEIGER

@<TRIPOS>ATOM
      1 C          11.3577  -10.6465    8.6001 C.ar    1  UNL1        0.0002
      2 C          12.3175  -11.5777    8.2036 C.ar    1  UNL1        0.0033
      3 C          10.1888  -10.4894    7.8553 C.ar    1  UNL1        0.0044
      4 C          12.1086  -12.3516    7.0621 C.ar    1  UNL1        0.0421
      5 C           9.9799  -11.2633    6.7138 C.ar    1  UNL1        0.0540
      6 C          10.9397  -12.1944    6.3172 C.ar    1  UNL1        0.1968
      7 C           6.4315  -11.0367    1.8269 C.ar    1  UNL1        0.1746
      8 C           5.1506  -11.1993    2.2913 C.ar    1  UNL1        0.0882
      9 C           2.9742  -10.8238    1.1960 C.ar    1  UNL1        0.2439
     10 C           2.0910  -11.0176    0.1361 C.ar    1  UNL1        0.2492
     11 C           8.7526  -11.0834    5.9507 C.2     1  UNL1        0.0817
     12 C           7.6963  -11.2896    2.5649 C.2     1  UNL1        0.3067
     13 C           4.6186  -11.6487    3.5904 C.3     1  UNL1        0.0541
     14 C           7.4843  -10.6434    6.6885 C.3     1  UNL1        0.0539
     15 N           6.3988  -10.5912    0.5346 N.ar    1  UNL1       -0.1240
     16 N           2.2953  -10.5980    2.3193 N.ar    1  UNL1       -0.0271
     17 N           0.8344  -10.9188    0.5663 N.ar    1  UNL1       -0.0281
     18 N           5.1251  -10.4695    0.1770 N.ar    1  UNL1       -0.0582
     19 N           8.7680  -11.3026    4.6531 N.2     1  UNL1       -0.1601
     20 N           4.3782  -10.8344    1.2317 N.ar    1  UNL1       -0.1912
     21 N           2.4941  -11.2683   -1.1342 N.pl3   1  UNL1       -0.1002
     22 N           7.6406  -11.1041    3.9340 N.am    1  UNL1       -0.0743
     23 O           8.7008  -11.6247    1.9423 O.2     1  UNL1       -0.2647
     24 O           0.9551  -10.6561    1.9324 O.2     1  UNL1       -0.2386
     25 O          10.7544  -12.9601    5.2051 O.3     1  UNL1       -0.2865
@<TRIPOS>BOND
     1     1     2   ar
     2     3     5   ar
     3     4     6   ar
     4     5    11    1
     5     6    25    1
     6     7    12    1
     7     7    15   ar
     8     8    20   ar
     9     9    10   ar
    10     9    20    1
    11    10    21    1
    12    12    22   am
    13    13     8    1
    14    14    11    1
    15    16    24   ar
    16    17    24   ar
    17    20    18   ar
    18    22    19    1
    19     1     3   ar
    20     2     4   ar
    21     5     6   ar
    22     7     8   ar
    23     9    16   ar
    24    10    17   ar
    25    11    19    2
    26    12    23    2
    27    15    18   ar
