@<TRIPOS>MOLECULE
ZINC05093851
 29 33 0 0 0
SMALL
GASTEIGER

@<TRIPOS>ATOM
      1 C          -1.7765   -9.5596    1.7950 C.ar    1  UNL1        0.0000
      2 C          -1.1356   -8.3798    1.4288 C.ar    1  UNL1        0.0000
      3 C           7.4046  -11.4573    5.9964 C.ar    1  UNL1        0.0001
      4 C           8.2548  -11.5793    7.1156 C.ar    1  UNL1        0.0013
      5 C          -1.0473  -10.7433    1.9121 C.ar    1  UNL1        0.0000
      6 C           0.2369   -8.3791    1.1783 C.ar    1  UNL1        0.0000
      7 C           1.0845  -11.9434    1.7768 C.ar    1  UNL1        0.0000
      8 C           2.4569  -11.9427    1.5263 C.ar    1  UNL1        0.0016
      9 C           7.7871  -11.9483    4.7454 C.ar    1  UNL1        0.0030
     10 C           9.5065  -12.1947    7.0077 C.ar    1  UNL1        0.0167
     11 C           2.3686   -9.5791    1.0429 C.ar    1  UNL1        0.0016
     12 C           5.4726  -11.6075    1.4895 C.ar    1  UNL1        0.0466
     13 C           0.3348  -10.7611    1.6638 C.ar    1  UNL1        0.0000
     14 C           0.9865   -9.5613    1.2914 C.ar    1  UNL1        0.0000
     15 C           3.0978  -10.7629    1.1601 C.ar    1  UNL1        0.0195
     16 C           9.0243  -12.5491    4.6668 C.ar    1  UNL1        0.0391
     17 C           9.8698  -12.6735    5.7665 C.ar    1  UNL1        0.0753
     18 C           4.5107  -10.7642    0.9016 C.ar    1  UNL1        0.1045
     19 C           6.6615  -11.2212    0.9208 C.ar    1  UNL1        0.1609
     20 C           9.7276  -13.1566    3.5531 C.2     1  UNL1        0.1569
     21 C          11.0585  -13.6538    4.0718 C.2     1  UNL1        0.2883
     22 C           7.9772  -11.7274    1.1379 C.2     1  UNL1        0.3055
     23 N           5.0428   -9.9066    0.0267 N.ar    1  UNL1       -0.1478
     24 N           9.3629  -13.2907    2.3241 N.2     1  UNL1       -0.1511
     25 N           6.3517  -10.2090    0.0606 N.ar    1  UNL1       -0.1432
     26 N          11.0586  -13.3200    5.4149 N.am    1  UNL1       -0.1741
     27 N           8.1365  -12.7794    2.0623 N.am    1  UNL1       -0.0739
     28 O          11.8813  -14.2120    3.3803 O.2     1  UNL1       -0.2663
     29 O           8.9775  -11.2488    0.5423 O.2     1  UNL1       -0.2648
@<TRIPOS>BOND
     1     1     2   ar
     2     3     4   ar
     3     5    13   ar
     4     6    14   ar
     5     7    13   ar
     6     8    15   ar
     7     9    16   ar
     8    10    17   ar
     9    11    14   ar
    10    12    18   ar
    11    15    18    1
    12    16    20    1
    13    17    26    1
    14    19    22    1
    15    19    25   ar
    16    20    21    1
    17    21    26   am
    18    22    27   am
    19    25    23   ar
    20    27    24    1
    21     1     5   ar
    22     2     6   ar
    23     3     9   ar
    24     4    10   ar
    25     7     8   ar
    26    11    15   ar
    27    12    19   ar
    28    13    14   ar
    29    16    17   ar
    30    18    23   ar
    31    20    24    2
    32    21    28    2
    33    22    29    2
