@<TRIPOS>MOLECULE
ZINC56935096
 29 33 0 0 0
SMALL
GASTEIGER

@<TRIPOS>ATOM
      1 C           0.1923  -10.7441    1.3233 C.ar    1  UNL1        0.0000
      2 C           0.8712   -9.7782    0.5807 C.ar    1  UNL1        0.0000
      3 C           0.9054  -11.7431    1.9861 C.ar    1  UNL1        0.0000
      4 C          13.9886  -14.0552    6.9676 C.ar    1  UNL1        0.0045
      5 C           2.2635   -9.8113    0.5007 C.ar    1  UNL1        0.0015
      6 C           2.2976  -11.7761    1.9062 C.ar    1  UNL1        0.0015
      7 C          13.1048  -13.5382    6.0119 C.ar    1  UNL1        0.0168
      8 C          11.1791  -14.1216    7.3828 C.ar    1  UNL1        0.0376
      9 C          13.9703  -15.2147    9.3105 C.ar    1  UNL1        0.1237
     10 C           5.0996  -10.3790   -0.0175 C.ar    1  UNL1        0.0575
     11 C          13.4561  -14.6110    8.1428 C.ar    1  UNL1        0.0404
     12 C           2.9767  -10.8102    1.1635 C.ar    1  UNL1        0.0182
     13 C          12.0775  -14.6317    8.3226 C.ar    1  UNL1        0.1057
     14 C          11.7243  -13.5719    6.2180 C.ar    1  UNL1        0.0753
     15 C           4.4085  -10.8433    1.0820 C.ar    1  UNL1        0.0900
     16 C           8.8552  -12.4081    4.0447 C.ar    1  UNL1        0.1731
     17 C           7.5188  -12.2277    3.7906 C.ar    1  UNL1        0.0885
     18 C           6.4475  -11.2597    1.7743 C.ar    1  UNL1        0.1965
     19 C           9.4638  -12.9864    5.2550 C.2     1  UNL1        0.2897
     20 C           6.3083  -12.5238    4.5763 C.3     1  UNL1        0.0541
     21 N          13.0147  -15.5901   10.1638 N.ar    1  UNL1       -0.1464
     22 N           5.1797  -11.3490    2.1103 N.ar    1  UNL1       -0.2204
     23 N           9.5894  -11.9625    2.9808 N.ar    1  UNL1       -0.1240
     24 N           8.7436  -11.5051    2.0641 N.ar    1  UNL1       -0.0580
     25 N          11.8818  -15.2254    9.5404 N.ar    1  UNL1       -0.1479
     26 N           7.5027  -11.6648    2.5516 N.ar    1  UNL1       -0.1911
     27 N          10.8712  -13.0500    5.2436 N.am    1  UNL1       -0.1740
     28 O           8.7655  -13.4057    6.1757 O.2     1  UNL1       -0.2662
     29 S           6.7842  -10.5770    0.2362 S.2     1  UNL1       -0.0466
@<TRIPOS>BOND
     1     1     2   ar
     2     3     6   ar
     3     4    11   ar
     4     5    12   ar
     5     7    14   ar
     6     8    13   ar
     7     9    11   ar
     8    10    29   ar
     9    12    15    1
    10    13    25   ar
    11    14    27    1
    12    15    22   ar
    13    16    19    1
    14    16    23   ar
    15    17    26   ar
    16    18    26    1
    17    18    29   ar
    18    19    27   am
    19    20    17    1
    20    25    21   ar
    21    26    24   ar
    22     1     3   ar
    23     2     5   ar
    24     4     7   ar
    25     6    12   ar
    26     8    14   ar
    27     9    21   ar
    28    10    15   ar
    29    11    13   ar
    30    16    17   ar
    31    18    22   ar
    32    19    28    2
    33    23    24   ar
