@<TRIPOS>MOLECULE
ZINC91588588
 25 28 0 0 0
SMALL
GASTEIGER

@<TRIPOS>ATOM
      1 C           0.1556  -10.6270    1.1686 C.ar    1  UNL1        0.0000
      2 C           0.9050   -9.8170    2.0217 C.ar    1  UNL1        0.0000
      3 C           0.7984  -11.5223    0.3137 C.ar    1  UNL1        0.0000
      4 C           2.2972   -9.9021    2.0197 C.ar    1  UNL1        0.0016
      5 C           2.1906  -11.6074    0.3117 C.ar    1  UNL1        0.0016
      6 C           5.2339  -10.6448    2.2504 C.ar    1  UNL1        0.0450
      7 C           2.9401  -10.7973    1.1647 C.ar    1  UNL1        0.0195
      8 C           4.3736  -10.8850    1.1622 C.ar    1  UNL1        0.1045
      9 C           6.4933  -10.8583    1.7458 C.ar    1  UNL1        0.1418
     10 C           7.7622  -10.7716    2.3617 C.ar    1  UNL1        0.2058
     11 C           9.3956  -10.1872    3.6652 C.ar    1  UNL1        0.2129
     12 C          10.7747  -11.8629    5.8810 C.ar    1  UNL1        0.1768
     13 C          10.1502  -13.9393    5.9787 C.ar    1  UNL1        0.3877
     14 C          11.4858  -10.6616    5.3738 C.3     1  UNL1        0.1326
     15 N           5.0309  -11.2248    0.0504 N.ar    1  UNL1       -0.1479
     16 N           8.8117  -11.4863    2.0238 N.ar    1  UNL1       -0.1249
     17 N           9.8510  -11.1144    2.8531 N.ar    1  UNL1       -0.1204
     18 N           9.9770  -11.8709    6.9078 N.ar    1  UNL1       -0.1277
     19 N           6.3178  -11.1996    0.4371 N.ar    1  UNL1       -0.1448
     20 N           8.0847   -9.9402    3.3910 N.ar    1  UNL1       -0.1770
     21 N          10.9327  -13.0549    5.2704 N.ar    1  UNL1       -0.1719
     22 N           9.5662  -13.1707    6.9942 N.ar    1  UNL1       -0.0870
     23 N           7.2248   -9.0140    4.0310 N.pl3   1  UNL1       -0.0214
     24 O           9.9947  -15.1330    5.7724 O.2     1  UNL1       -0.2410
     25 S          10.2877   -9.3803    4.9021 S.3     1  UNL1       -0.0658
@<TRIPOS>BOND
     1     1     2   ar
     2     3     5   ar
     3     4     7   ar
     4     6     8   ar
     5     7     8    1
     6     9    10    1
     7     9    19   ar
     8    10    20   ar
     9    11    20   ar
    10    11    25    1
    11    12    21   ar
    12    13    21   ar
    13    13    22   ar
    14    14    12    1
    15    14    25    1
    16    16    17   ar
    17    19    15   ar
    18    20    23    1
    19    22    18   ar
    20     1     3   ar
    21     2     4   ar
    22     5     7   ar
    23     6     9   ar
    24     8    15   ar
    25    10    16   ar
    26    11    17   ar
    27    12    18   ar
    28    13    24    2
