@<TRIPOS>MOLECULE
ZINC09155560
 29 32 0 0 0
SMALL
GASTEIGER

@<TRIPOS>ATOM
      1 C           2.5671  -10.3740   -0.1844 C.ar    1  UNL1        0.0033
      2 C           2.3075  -11.0144    2.1305 C.ar    1  UNL1        0.0033
      3 C           1.1804  -10.3392   -0.3305 C.ar    1  UNL1        0.0047
      4 C           0.9206  -10.9796    1.9846 C.ar    1  UNL1        0.0047
      5 C          10.1510  -14.1098    3.4078 C.ar    1  UNL1        0.0282
      6 C           9.9098  -12.1405    4.4724 C.ar    1  UNL1        0.1019
      7 C           3.1306  -10.7117    1.0461 C.ar    1  UNL1        0.0393
      8 C           0.3571  -10.6420    0.7541 C.ar    1  UNL1        0.0567
      9 C           9.3879  -12.9174    3.4619 C.ar    1  UNL1        0.0575
     10 C          11.1159  -14.0253    4.3871 C.ar    1  UNL1        0.1348
     11 C           4.5552  -10.7472    1.1968 C.ar    1  UNL1        0.2058
     12 C           8.2734  -12.5451    2.6400 C.2     1  UNL1        0.2011
     13 C          -1.0886  -10.6062    0.6018 C.2     1  UNL1        0.2842
     14 C          12.1465  -15.0000    4.7315 C.2     1  UNL1        0.2668
     15 C          14.4893  -15.1809    1.8666 C.3     1  UNL1        0.0233
     16 C          14.8123  -16.4575    2.6320 C.3     1  UNL1        0.0233
     17 C          13.0878  -14.8409    2.3544 C.3     1  UNL1        0.0938
     18 C          14.1990  -16.1949    3.9986 C.3     1  UNL1        0.0938
     19 C           7.5634  -11.1888    2.8528 C.3     1  UNL1        0.2198
     20 N           5.4061  -10.4600    0.1711 N.ar    1  UNL1       -0.1077
     21 N           5.1675  -11.0607    2.3414 N.ar    1  UNL1       -0.1293
     22 N           6.6311  -10.5910    0.6648 N.ar    1  UNL1       -0.0447
     23 N          10.9596  -12.8241    5.0281 N.ar    1  UNL1       -0.2392
     24 N           6.4423  -10.9457    1.9434 N.ar    1  UNL1       -0.1429
     25 N          13.0543  -15.3349    3.7306 N.am    1  UNL1       -0.2748
     26 N          -1.6001  -10.2639   -0.6467 N.am    1  UNL1       -0.0837
     27 O           7.8434  -13.3031    1.7322 O.2     1  UNL1       -0.2891
     28 O          -1.8475  -10.8553    1.5551 O.2     1  UNL1       -0.2667
     29 O          12.1964  -15.4689    5.8681 O.2     1  UNL1       -0.2683
@<TRIPOS>BOND
     1     1     3   ar
     2     2     7   ar
     3     4     8   ar
     4     5     9   ar
     5     6    23   ar
     6     7    11    1
     7     8    13    1
     8     9    12    1
     9    10    14    1
    10    10    23   ar
    11    11    20   ar
    12    13    26   am
    13    14    25   am
    14    15    16    1
    15    15    17    1
    16    16    18    1
    17    17    25    1
    18    18    25    1
    19    19    12    1
    20    19    24    1
    21    24    21   ar
    22    24    22   ar
    23     1     7   ar
    24     2     4   ar
    25     3     8   ar
    26     5    10   ar
    27     6     9   ar
    28    11    21   ar
    29    12    27    2
    30    13    28    2
    31    14    29    2
    32    20    22   ar
