@<TRIPOS>MOLECULE
ZINC49032005
 27 31 0 0 0
SMALL
GASTEIGER

@<TRIPOS>ATOM
      1 C           7.0344  -15.6057    8.6507 C.ar    1  UNL1        0.0075
      2 C           7.5125  -14.9659    7.4708 C.ar    1  UNL1        0.0086
      3 C           2.4150  -11.0557    2.3306 C.ar    1  UNL1        0.0238
      4 C           2.1427  -10.7427   -0.0385 C.ar    1  UNL1        0.0238
      5 C           9.1103  -13.5863    5.2430 C.ar    1  UNL1        0.0470
      6 C           1.0418  -11.2211    2.4121 C.ar    1  UNL1        0.0990
      7 C           0.7816  -10.9223    0.1491 C.ar    1  UNL1        0.0990
      8 C           8.0285  -15.7684    9.5902 C.ar    1  UNL1        0.0355
      9 C           2.9681  -10.8122    1.0783 C.ar    1  UNL1        0.0422
     10 C           9.6249  -14.0013    6.4859 C.ar    1  UNL1        0.1105
     11 C           8.8541  -14.6637    7.5536 C.ar    1  UNL1        0.0489
     12 C          10.1857  -13.0300    4.5945 C.ar    1  UNL1        0.1577
     13 C           4.3844  -10.6335    0.9390 C.ar    1  UNL1        0.2034
     14 C           6.3842  -10.4824    1.4468 C.ar    1  UNL1        0.2395
     15 C          10.2600  -12.4227    3.2522 C.2     1  UNL1        0.2686
     16 C           8.8873  -11.1241    1.5259 C.3     1  UNL1        0.1048
     17 C           7.8217  -11.5087    3.3356 C.3     1  UNL1        0.1048
     18 C           7.7071  -10.4485    2.2335 C.3     1  UNL1        0.1187
     19 N           0.2078  -11.1605    1.3497 N.ar    1  UNL1       -0.2423
     20 N          10.9261  -13.7318    6.6210 N.ar    1  UNL1       -0.1473
     21 N           5.2234  -10.6953    2.0133 N.ar    1  UNL1       -0.1907
     22 N           4.9671  -10.3970   -0.2402 N.ar    1  UNL1       -0.0560
     23 N          11.2382  -13.1416    5.4547 N.ar    1  UNL1       -0.1433
     24 N           9.1251  -11.8180    2.7787 N.am    1  UNL1       -0.2737
     25 O          11.3271  -12.4742    2.6454 O.2     1  UNL1       -0.2682
     26 O           6.3211  -10.2944    0.1026 O.2     1  UNL1       -0.3369
     27 S           9.5314  -15.1511    9.0489 S.2     1  UNL1       -0.0849
@<TRIPOS>BOND
     1     1     2   ar
     2     3     9   ar
     3     4     7   ar
     4     5    10   ar
     5     6    19   ar
     6     8    27   ar
     7     9    13    1
     8    10    11    1
     9    11    27   ar
    10    12    15    1
    11    12    23   ar
    12    13    21   ar
    13    14    26   ar
    14    15    24   am
    15    16    18    1
    16    16    24    1
    17    17    18    1
    18    17    24    1
    19    18    14    1
    20    22    26   ar
    21    23    20   ar
    22     1     8   ar
    23     2    11   ar
    24     3     6   ar
    25     4     9   ar
    26     5    12   ar
    27     7    19   ar
    28    10    20   ar
    29    13    22   ar
    30    14    21   ar
    31    15    25    2
