@<TRIPOS>MOLECULE
ZINC13353973
 29 32 0 0 0
SMALL
GASTEIGER

@<TRIPOS>ATOM
      1 C           0.3444  -11.0399    1.4510 C.ar    1  UNL1        0.0000
      2 C           1.2063  -11.7250    2.3075 C.ar    1  UNL1        0.0001
      3 C           0.8618  -10.1799    0.4823 C.ar    1  UNL1        0.0001
      4 C          10.2672  -10.6931    1.7177 C.ar    1  UNL1        0.0003
      5 C           2.5856  -11.5501    2.1952 C.ar    1  UNL1        0.0032
      6 C           2.2411  -10.0050    0.3700 C.ar    1  UNL1        0.0032
      7 C           8.9692  -10.4083    1.2942 C.ar    1  UNL1        0.0047
      8 C          10.4779  -11.5827    2.7712 C.ar    1  UNL1        0.0046
      9 C          13.0055  -14.0253    7.9887 C.ar    1  UNL1        0.0042
     10 C          11.0946  -15.4986    7.8667 C.ar    1  UNL1        0.0042
     11 C          12.5058  -13.2882    6.9151 C.ar    1  UNL1        0.0167
     12 C          10.5948  -14.7614    6.7931 C.ar    1  UNL1        0.0167
     13 C           8.0920  -11.9028    2.9777 C.ar    1  UNL1        0.0093
     14 C           3.1030  -10.6901    1.2264 C.ar    1  UNL1        0.0391
     15 C           7.8816  -11.0132    1.9241 C.ar    1  UNL1        0.0562
     16 C          12.3000  -15.1306    8.4644 C.ar    1  UNL1        0.0348
     17 C           9.3902  -12.1875    3.4013 C.ar    1  UNL1        0.0555
     18 C          11.3004  -13.6562    6.3174 C.ar    1  UNL1        0.0737
     19 C           4.5232  -10.5109    1.1103 C.ar    1  UNL1        0.2036
     20 C           6.5464  -10.7187    1.4888 C.ar    1  UNL1        0.2600
     21 C          12.8224  -15.8998    9.5827 C.2     1  UNL1        0.1735
     22 C           9.6105  -13.1153    4.4994 C.2     1  UNL1        0.2690
     23 C          14.3132  -15.9565    9.7489 C.3     1  UNL1        0.0773
     24 N           5.3972  -11.1647    1.9294 N.ar    1  UNL1       -0.1870
     25 N           5.0738   -9.6990    0.2030 N.ar    1  UNL1       -0.0556
     26 N          10.7926  -12.9064    5.2266 N.am    1  UNL1       -0.1754
     27 O          12.1340  -16.5125   10.4016 O.2     1  UNL1       -0.2913
     28 O           8.8204  -14.0386    4.7402 O.2     1  UNL1       -0.2680
     29 O           6.4438   -9.8387    0.4584 O.2     1  UNL1       -0.3324
@<TRIPOS>BOND
     1     1     2   ar
     2     3     6   ar
     3     4     7   ar
     4     5    14   ar
     5     8    17   ar
     6     9    16   ar
     7    10    12   ar
     8    11    18   ar
     9    13    15   ar
    10    14    19    1
    11    15    20    1
    12    16    21    1
    13    17    22    1
    14    18    26    1
    15    19    24   ar
    16    20    29   ar
    17    22    26   am
    18    23    21    1
    19    25    29   ar
    20     1     3   ar
    21     2     5   ar
    22     4     8   ar
    23     6    14   ar
    24     7    15   ar
    25     9    11   ar
    26    10    16   ar
    27    12    18   ar
    28    13    17   ar
    29    19    25   ar
    30    20    24   ar
    31    21    27    2
    32    22    28    2
