@<TRIPOS>MOLECULE
ZINC70721440
 28 31 0 0 0
SMALL
GASTEIGER

@<TRIPOS>ATOM
      1 C           0.7070  -10.5859   -0.0736 C.ar    1  UNL1        0.0076
      2 C          13.3545  -17.0182    5.4211 C.ar    1  UNL1        0.0062
      3 C          14.5347  -15.4506    6.8305 C.ar    1  UNL1        0.0062
      4 C          14.2662  -18.0156    5.7669 C.ar    1  UNL1        0.0370
      5 C          15.4465  -16.4480    7.1764 C.ar    1  UNL1        0.0370
      6 C           2.1245  -10.5665   -0.2167 C.ar    1  UNL1        0.0102
      7 C           0.3213  -10.6848    1.2451 C.ar    1  UNL1        0.0355
      8 C          13.4888  -15.7357    5.9529 C.ar    1  UNL1        0.0378
      9 C          15.3122  -17.7305    6.6445 C.ar    1  UNL1        0.1387
     10 C           2.7683  -10.6510    0.9983 C.ar    1  UNL1        0.0685
     11 C          12.5508  -14.7084    5.5967 C.ar    1  UNL1        0.1864
     12 C           4.2321  -10.6544    1.1651 C.ar    1  UNL1        0.2093
     13 C           6.0926  -10.7088    2.0679 C.ar    1  UNL1        0.2371
     14 C          10.9164  -13.7850    4.6839 C.ar    1  UNL1        0.2634
     15 C           9.1711  -12.1678    3.9275 C.2     1  UNL1        0.2486
     16 C          16.0059  -19.9923    6.4026 C.3     1  UNL1        0.2525
     17 C           7.3088  -10.7665    2.9591 C.3     1  UNL1        0.0977
     18 C           7.9740  -12.1436    2.9896 C.3     1  UNL1        0.0971
     19 N           4.8245  -10.7401    2.3914 N.ar    1  UNL1       -0.1903
     20 N          11.5154  -14.9519    4.7405 N.ar    1  UNL1       -0.1900
     21 N          12.6302  -13.4643    6.0736 N.ar    1  UNL1       -0.1256
     22 N           5.0638  -10.5739    0.1224 N.ar    1  UNL1       -0.0555
     23 N          11.5736  -12.8944    5.4743 N.ar    1  UNL1       -0.1090
     24 N           9.8030  -13.4250    3.9747 N.am    1  UNL1       -0.1419
     25 O           9.5109  -11.1500    4.5242 O.2     1  UNL1       -0.2729
     26 O           6.3240  -10.6106    0.7325 O.2     1  UNL1       -0.3370
     27 O          16.2019  -18.7035    6.9824 O.3     1  UNL1       -0.4714
     28 S           1.6652  -10.7536    2.3040 S.2     1  UNL1       -0.0832
@<TRIPOS>BOND
     1     1     6   ar
     2     2     8   ar
     3     3     5   ar
     4     4     9   ar
     5     7    28   ar
     6     8    11    1
     7     9    27    1
     8    10    12    1
     9    10    28   ar
    10    11    20   ar
    11    12    19   ar
    12    13    26   ar
    13    14    23   ar
    14    14    24    1
    15    15    24   am
    16    16    27    1
    17    17    13    1
    18    17    18    1
    19    18    15    1
    20    22    26   ar
    21    23    21   ar
    22     1     7   ar
    23     2     4   ar
    24     3     8   ar
    25     5     9   ar
    26     6    10   ar
    27    11    21   ar
    28    12    22   ar
    29    13    19   ar
    30    14    20   ar
    31    15    25    2
