@<TRIPOS>MOLECULE
ZINC33854447
 27 29 0 0 0
SMALL
GASTEIGER

@<TRIPOS>ATOM
      1 C           0.2896  -12.0162    1.1186 C.ar    1  UNL1        0.0076
      2 C           6.4569   -9.2765    1.0880 C.ar    1  UNL1        0.0027
      3 C           6.2525  -11.6660    1.3807 C.ar    1  UNL1        0.0027
      4 C           5.5319   -9.3250    0.0453 C.ar    1  UNL1       -0.0237
      5 C           5.3274  -11.7145    0.3379 C.ar    1  UNL1       -0.0237
      6 C           0.4560  -11.4035    2.3605 C.ar    1  UNL1        0.0754
      7 C           0.9689  -11.5269    0.0029 C.ar    1  UNL1        0.0173
      8 C           1.9810   -9.8121    1.3712 C.ar    1  UNL1        0.0921
      9 C          10.7968  -11.7029    5.6558 C.ar    1  UNL1        0.2241
     10 C           6.8174  -10.4470    1.7558 C.ar    1  UNL1        0.0554
     11 C           4.9670  -10.5440   -0.3299 C.ar    1  UNL1       -0.1123
     12 C           1.3017  -10.3015    2.4870 C.ar    1  UNL1        0.2913
     13 C           1.8147  -10.4248    0.1293 C.ar    1  UNL1        0.0954
     14 C           9.4851  -11.8540    4.0390 C.ar    1  UNL1        0.2638
     15 C           7.7820  -10.3970    2.8429 C.2     1  UNL1        0.2715
     16 N           9.8648  -10.9929    4.9543 N.ar    1  UNL1       -0.1871
     17 N          10.1663  -13.0204    4.1973 N.ar    1  UNL1       -0.1089
     18 N           4.0740  -10.5908   -1.3373 N.pl3   1  UNL1       -0.5358
     19 N          11.0175  -12.9491    5.2321 N.ar    1  UNL1       -0.1223
     20 N           8.5096  -11.5796    3.0475 N.am    1  UNL1       -0.1381
     21 N           1.4716   -9.6783    3.7513 N.pl3   1  UNL1        0.0810
     22 O           0.8517  -10.1347    4.7424 O.co2   1  UNL1       -0.5760
     23 O           7.9147   -9.3885    3.5499 O.2     1  UNL1       -0.2679
     24 O           2.2370   -8.6882    3.8435 O.2     1  UNL1        0.0415
     25 O           1.7730  -10.1098   -2.4051 O.2     1  UNL1       -0.1842
     26 O           2.8014   -8.3671   -1.0151 O.2     1  UNL1       -0.1842
     27 S           2.6923   -9.7934   -1.3140 S.O2    1  UNL1       -0.0576
@<TRIPOS>UNITY_ATOM_ATTR
18 1
charge -1
21 1
charge 1
22 1
charge -1
@<TRIPOS>BOND
     1     1     6   ar
     2     2    10   ar
     3     3     5   ar
     4     4    11   ar
     5     7    13   ar
     6     8    12   ar
     7     9    19   ar
     8    10    15    1
     9    11    18    1
    10    12    21    1
    11    14    16   ar
    12    14    20    1
    13    15    20   am
    14    19    17   ar
    15    21    22    1
    16    27    13    1
    17    27    18    1
    18     1     7   ar
    19     2     4   ar
    20     3    10   ar
    21     5    11   ar
    22     6    12   ar
    23     8    13   ar
    24     9    16   ar
    25    14    17   ar
    26    15    23    2
    27    21    24    2
    28    27    25    2
    29    27    26    2
