@<TRIPOS>MOLECULE
ZINC05266593
 28 31 0 0 0
SMALL
GASTEIGER

@<TRIPOS>ATOM
      1 C          10.1412  -15.0202    1.0599 C.ar    1  UNL1        0.0000
      2 C          10.6840  -16.0903    1.7703 C.ar    1  UNL1        0.0002
      3 C           9.9889  -13.7746    1.6721 C.ar    1  UNL1        0.0014
      4 C          11.0779  -15.9200    3.0972 C.ar    1  UNL1        0.0049
      5 C           0.2919  -11.4133    1.8669 C.ar    1  UNL1       -0.0046
      6 C           1.2209  -12.4371    1.6820 C.ar    1  UNL1       -0.0045
      7 C           2.0081   -9.7742    1.4141 C.ar    1  UNL1       -0.0031
      8 C           4.6236   -9.7457   -0.2325 C.ar    1  UNL1        0.0573
      9 C           2.9371  -10.7980    1.2291 C.ar    1  UNL1        0.0140
     10 C          10.3828  -13.6026    3.0015 C.ar    1  UNL1        0.0205
     11 C          10.9249  -14.6722    3.7089 C.ar    1  UNL1        0.0605
     12 C           0.6854  -10.0818    1.7329 C.ar    1  UNL1       -0.0218
     13 C           2.5435  -12.1295    1.3631 C.ar    1  UNL1       -0.0204
     14 C           4.2913  -10.4560    0.9020 C.ar    1  UNL1        0.0895
     15 C           6.4658  -10.3897    1.1796 C.ar    1  UNL1        0.1858
     16 C          10.2534  -12.3179    3.7184 C.ar    1  UNL1        0.0900
     17 C          11.3327  -14.4675    5.1080 C.ar    1  UNL1        0.2967
     18 C           8.1726  -11.1963    2.8450 C.2     1  UNL1        0.2534
     19 C          -0.3082   -8.9874    1.9322 C.3     1  UNL1        0.0310
     20 C           3.5111  -13.2539    1.1741 C.3     1  UNL1        0.0311
     21 C           9.6705  -11.1272    2.9946 C.3     1  UNL1        0.1347
     22 N           5.3463  -10.8265    1.7127 N.ar    1  UNL1       -0.2225
     23 N          10.6158  -12.1503    4.9517 N.ar    1  UNL1       -0.1488
     24 N          11.1404  -13.2028    5.6207 N.ar    1  UNL1       -0.1058
     25 N           7.7804  -10.5457    1.6794 N.am    1  UNL1       -0.1540
     26 O          11.8149  -15.3908    5.7575 O.2     1  UNL1       -0.2636
     27 O           7.4550  -11.7604    3.6647 O.2     1  UNL1       -0.2725
     28 S           6.3233   -9.5253   -0.2960 S.2     1  UNL1       -0.0492
@<TRIPOS>BOND
     1     1     2   ar
     2     3    10   ar
     3     4    11   ar
     4     5    12   ar
     5     6    13   ar
     6     7     9   ar
     7     8    28   ar
     8     9    14    1
     9    10    16   ar
    10    11    17   ar
    11    14    22   ar
    12    15    25    1
    13    15    28   ar
    14    17    24   ar
    15    18    25   am
    16    19    12    1
    17    20    13    1
    18    21    16    1
    19    21    18    1
    20    24    23   ar
    21     1     3   ar
    22     2     4   ar
    23     5     6   ar
    24     7    12   ar
    25     8    14   ar
    26     9    13   ar
    27    10    11   ar
    28    15    22   ar
    29    16    23   ar
    30    17    26    2
    31    18    27    2
