@<TRIPOS>MOLECULE
ZINC60362342
 31 35 0 0 0
SMALL
GASTEIGER

@<TRIPOS>ATOM
      1 C           1.0003  -12.0727    1.7100 C.ar    1  UNL1       -0.0000
      2 C           0.2395  -11.0087    1.2301 C.ar    1  UNL1       -0.0003
      3 C           2.3952  -12.0036    1.7019 C.ar    1  UNL1        0.0002
      4 C           0.8682   -9.8675    0.7352 C.ar    1  UNL1       -0.0042
      5 C          11.6494  -11.1356    8.3324 C.ar    1  UNL1        0.0205
      6 C          12.6461  -13.3355    8.3988 C.ar    1  UNL1        0.0205
      7 C          11.1239  -11.4118    7.0703 C.ar    1  UNL1        0.0181
      8 C          12.1205  -13.6118    7.1367 C.ar    1  UNL1        0.0181
      9 C           6.5468   -9.7717    0.5482 C.ar    1  UNL1        0.0073
     10 C          13.9424  -12.0427   12.0342 C.ar    1  UNL1        0.2214
     11 C          12.7917  -10.6726   10.9590 C.ar    1  UNL1        0.2016
     12 C           3.0424  -10.8639    1.2082 C.ar    1  UNL1        0.0017
     13 C           2.2666   -9.7885    0.7069 C.ar    1  UNL1       -0.0214
     14 C           5.1287   -9.7155    0.4226 C.ar    1  UNL1       -0.0152
     15 C          12.4105  -12.0975    8.9968 C.ar    1  UNL1        0.0847
     16 C          11.3594  -12.6499    6.4723 C.ar    1  UNL1        0.0735
     17 C           4.5024  -10.7119    1.1523 C.ar    1  UNL1        0.0253
     18 C           6.9488  -10.8022    1.3694 C.ar    1  UNL1        0.0841
     19 C           8.2721  -11.1845    1.7422 C.2     1  UNL1        0.2713
     20 C          10.0538  -12.0920    4.3918 C.2     1  UNL1        0.2677
     21 C           2.9387   -8.5139    0.2221 C.3     1  UNL1        0.0311
     22 C           4.3290   -8.7500   -0.3954 C.3     1  UNL1        0.0316
     23 C           9.6922  -12.7845    3.0920 C.3     1  UNL1        0.2020
     24 N          13.4255  -10.7807   12.1035 N.ar    1  UNL1       -0.2004
     25 N          13.6684  -12.7223   10.9185 N.ar    1  UNL1       -0.1409
     26 N          12.9315  -11.8237   10.2480 N.ar    1  UNL1       -0.2079
     27 N          10.8274  -12.9296    5.1911 N.am    1  UNL1       -0.1777
     28 N           8.4234  -12.2904    2.6075 N.am    1  UNL1       -0.1912
     29 O           9.2799  -10.5509    1.3359 O.2     1  UNL1       -0.2678
     30 O           9.6946  -10.9464    4.6442 O.2     1  UNL1       -0.2710
     31 S           5.6212  -11.6939    1.9797 S.2     1  UNL1       -0.0827
@<TRIPOS>BOND
     1     1     2   ar
     2     3    12   ar
     3     4    13   ar
     4     5    15   ar
     5     6     8   ar
     6     7    16   ar
     7     9    14   ar
     8    10    24   ar
     9    11    26   ar
    10    12    17    1
    11    15    26    1
    12    16    27    1
    13    17    31   ar
    14    18    19    1
    15    18    31   ar
    16    19    28   am
    17    20    27   am
    18    21    13    1
    19    21    22    1
    20    22    14    1
    21    23    20    1
    22    23    28    1
    23    26    25   ar
    24     1     3   ar
    25     2     4   ar
    26     5     7   ar
    27     6    15   ar
    28     8    16   ar
    29     9    18   ar
    30    10    25   ar
    31    11    24   ar
    32    12    13   ar
    33    14    17   ar
    34    19    29    2
    35    20    30    2
