@<TRIPOS>MOLECULE
ZINC02731376
 30 34 0 0 0
SMALL
GASTEIGER

@<TRIPOS>ATOM
      1 C          12.0239   -7.4807    9.5597 C.ar    1  UNL1       -0.0000
      2 C          13.0567   -8.4057    9.7126 C.ar    1  UNL1       -0.0003
      3 C          10.7006   -7.9172    9.4958 C.ar    1  UNL1       -0.0003
      4 C          12.7662   -9.7670    9.8016 C.ar    1  UNL1       -0.0023
      5 C          10.4101   -9.2786    9.5848 C.ar    1  UNL1       -0.0023
      6 C           6.3098  -11.9392    1.0921 C.ar    1  UNL1       -0.0023
      7 C           6.2887   -9.5286    1.2527 C.ar    1  UNL1       -0.0023
      8 C           4.9151  -11.9502    1.0724 C.ar    1  UNL1        0.0189
      9 C           4.8940   -9.5396    1.2329 C.ar    1  UNL1        0.0189
     10 C          12.2667  -13.7310    7.1184 C.ar    1  UNL1        0.0582
     11 C          12.2886  -13.4145    8.4548 C.ar    1  UNL1        0.0985
     12 C           2.0005  -11.8380    1.0401 C.ar    1  UNL1        0.2258
     13 C           6.9966  -10.7284    1.1823 C.ar    1  UNL1       -0.0155
     14 C          11.4429  -10.2035    9.7377 C.ar    1  UNL1        0.0021
     15 C           4.2072  -10.7504    1.1427 C.ar    1  UNL1        0.0862
     16 C          11.3720  -12.8036    6.5517 C.ar    1  UNL1        0.1748
     17 C           9.0864  -11.0914    2.5445 C.ar    1  UNL1        0.1168
     18 C          10.2796  -12.0626    4.3334 C.ar    1  UNL1        0.2067
     19 C           8.4877  -10.7168    1.2036 C.3     1  UNL1        0.0808
     20 C          11.1296  -11.6722    9.8334 C.3     1  UNL1        0.1539
     21 N           0.7577  -11.4140    1.0530 N.ar    1  UNL1       -0.1045
     22 N          10.8622  -11.9612    7.4543 N.ar    1  UNL1       -0.1520
     23 N           8.8270  -10.4913    3.6867 N.ar    1  UNL1       -0.1436
     24 N           9.5276  -11.0603    4.7357 N.ar    1  UNL1       -0.1239
     25 N           0.8341  -10.0427    1.1458 N.ar    1  UNL1       -0.0222
     26 N           2.0973   -9.6372    1.1895 N.ar    1  UNL1       -0.0385
     27 N          11.4385  -12.3581    8.6016 N.ar    1  UNL1       -0.2437
     28 N           2.8246  -10.7612    1.1231 N.ar    1  UNL1       -0.1886
     29 N          11.0770  -12.8114    5.1377 N.pl3   1  UNL1       -0.1666
     30 S          10.1976  -12.3936    2.6526 S.2     1  UNL1       -0.0327
@<TRIPOS>BOND
     1     1     2   ar
     2     3     5   ar
     3     4    14   ar
     4     6    13   ar
     5     7     9   ar
     6     8    15   ar
     7    10    16   ar
     8    11    27   ar
     9    12    28   ar
    10    15    28    1
    11    16    29    1
    12    17    30   ar
    13    18    29    1
    14    18    30   ar
    15    19    13    1
    16    19    17    1
    17    20    14    1
    18    20    27    1
    19    21    25   ar
    20    23    24   ar
    21    27    22   ar
    22    28    26   ar
    23     1     3   ar
    24     2     4   ar
    25     5    14   ar
    26     6     8   ar
    27     7    13   ar
    28     9    15   ar
    29    10    11   ar
    30    12    21   ar
    31    16    22   ar
    32    17    23   ar
    33    18    24   ar
    34    25    26   ar
